44
4-trans dimer
C   0.39866200  -2.00789900   0.96565000
C   1.37293100  -1.03016300   1.14865700
C   0.99970900   0.22669800   1.60780900
C  -0.33474600   0.49489100   1.89846500
C  -1.30934800  -0.48922500   1.72147700
C  -0.94919300  -1.75942200   1.23247400
H   0.69422700  -2.98196800   0.58267800
H   2.41208800  -1.24534600   0.92122100
H   1.74645100   1.00221700   1.74827900
H  -0.61366700   1.47657600   2.26709100
N  -2.68994400  -0.25217600   2.00225100
B  -2.06513000  -2.84204800   0.95546600
H  -2.42087900  -3.62742600   1.78897800
H  -3.12591800  -2.22202700   0.49217700
H  -1.79316200  -3.52666800  -0.12323900
C  -3.14674200   1.11605100   1.84935100
H  -4.24103100   1.12412600   1.83731000
H  -2.81959000   1.78642800   2.66362700
H  -2.78967300   1.52155400   0.90013700
C  -3.13738600  -0.82718100   3.26484800
H  -2.73911600  -0.28094300   4.13710100
H  -4.23083100  -0.79883600   3.31022300
H  -2.81969000  -1.86861900   3.34257700
B  -2.88015300  -2.90684100  -0.61682000
H  -2.48722100  -2.14704600  -1.44840700
C  -4.06646100  -3.89677700  -0.90853800
C  -4.31035600  -4.38030400  -2.21562600
C  -4.98133100  -4.22988400   0.09719700
C  -5.46362800  -5.13146100  -2.47097400
C  -6.12228100  -4.98331900  -0.15656600
H  -4.80904600  -3.86062600   1.10498400
C  -6.36366500  -5.42326200  -1.45173500
H  -5.65882200  -5.50565700  -3.46973200
H  -6.81959400  -5.21055300   0.64307100
H  -7.25122900  -6.00791700  -1.67480100
N  -3.39087400  -4.07210000  -3.24732900
C  -3.87957600  -4.13407400  -4.60876900
H  -3.16326200  -3.62642600  -5.26200700
H  -4.00337500  -5.16386800  -4.98914600
H  -4.83772900  -3.61567500  -4.68704100
C  -2.07231300  -4.67364900  -3.12818700
H  -2.06790900  -5.72999700  -3.44851900
H  -1.35777300  -4.12203200  -3.74719300
H  -1.71973900  -4.63916100  -2.09722700