74
TS2 old
C -2.27032900 -1.34720200 0.84956800
C -1.13180100 -0.58903900 1.20272100
C 0.09791600 -1.26561900 1.25788900
C 0.21385100 -2.63157300 1.02943100
C -0.91919500 -3.37052400 0.70950300
C -2.14476800 -2.72361300 0.61209800
H 0.99465900 -0.69581300 1.48756000
H 1.18530700 -3.11421300 1.09056300
H -0.85061000 -4.43811400 0.52185300
H -3.02655600 -3.29205600 0.33778900
N -3.54346100 -0.70445400 0.69989300
C -4.53351500 -0.90638300 1.77776900
C -3.95861400 -0.37961400 -0.68294500
C -5.56141300 0.23999900 1.72614000
C -3.81650900 -0.80300200 3.13030700
C -5.27085600 -2.26612700 1.75055200
C -5.01505600 0.74015900 -0.63478100
C -4.50595100 -1.58135100 -1.48821300
C -2.75405600 0.17250400 -1.46236200
H -6.34989500 0.04097900 2.46143000
H -5.05200500 1.16244200 2.03421400
C -6.14987700 0.45466300 0.33891400
H -3.10938700 -1.62190900 3.28432200
C 2.65554100 4.90641900 1.83999900
H 2.02223000 5.73286500 1.50736200
H 2.78664400 4.99074600 2.91990500
H 3.63232400 5.01152200 1.35765300
C 1.63811200 3.59026100 -0.02710100
H 0.91028500 4.38641800 -0.20179700
H 2.51387200 3.77650100 -0.65488800
H 1.18097800 2.64541600 -0.32961100
C 3.69773600 1.71389300 0.78917700
H 4.44892400 2.43892900 0.46026900
H 4.21886600 0.83330000 1.17327200
H 3.10212100 1.40690400 -0.07155500
C 3.63922300 2.51614000 3.16063000
H 4.00850000 1.54661200 3.50336800
H -3.26513000 0.13625200 3.19025000
H -4.55308300 -0.83174200 3.94040100
H -5.86578700 -2.40768600 0.84658900
H -4.56081300 -3.09313700 1.82484600
H -5.94989800 -2.33849600 2.60743200
H -5.39987900 0.90515700 -1.64780100
H -4.51196000 1.66406600 -0.32237400
H -4.72530500 -1.27383600 -2.51658000
H -3.76404300 -2.38237500 -1.53507900
H -5.42475300 -1.99162800 -1.06501800
H -2.29965500 1.01268300 -0.93167700
H -1.98644700 -0.58902600 -1.61977100
H -3.09212000 0.52168100 -2.44353800
H -6.85575800 1.29250700 0.35282800
H -6.72219100 -0.42551400 0.02111000
B -1.20185100 0.99015400 1.45580600
H -2.29228800 1.49362700 1.47308800
H -0.44221800 1.61045400 0.73443200
C 2.01184800 3.58229300 1.45511600
C 2.82358600 2.30807800 1.88376300
O 0.78804800 3.43210400 2.20952600
O 1.78256800 1.36457700 2.20620100
B 0.64171000 2.08792700 2.45726200
H 4.49647500 3.17292000 2.98874000
H 3.02297900 2.94442100 3.95596800
C -0.59431500 1.47596600 3.19633600
C -0.45313600 0.37578600 4.08581500
C -1.28355300 0.55309400 5.17513700
H 0.19880400 -0.46352700 3.89187300
C -1.93298800 1.77713800 4.97641400
H -1.43545200 -0.11338800 6.01038400
H -2.67766200 2.26485800 5.59138200
N -1.52297000 2.33200900 3.83845900
C -2.01146800 3.58731100 3.29642900
H -1.17582900 4.26759900 3.13291300
H -2.50488500 3.39485600 2.34126500
H -2.72222100 4.02114300 4.00042300