74

C -0.54482800 1.90131400 1.75786000
C -0.74122800 0.52934600 2.02632000
C -1.43591000 0.20865000 3.19852100
C -1.93878000 1.17632400 4.06386200
C -1.75690000 2.52217500 3.77293200
C -1.05855700 2.87301900 2.62322100
H -1.59016700 -0.83435700 3.45636700
H -2.47279200 0.87596600 4.96190400
H -2.14550500 3.29152300 4.43466200
H -0.89874600 3.92260900 2.38983900
N 0.21078800 2.27686700 0.59142800
C -0.54967800 2.83077200 -0.56118000
C 1.59036900 2.78520200 0.83093900
C -0.46833700 4.37342300 -0.59957400
C -0.02728100 2.24312500 -1.89363300
C -2.02973500 2.42605600 -0.47075800
C 1.63533200 4.32867100 0.77510600
C 2.58164300 2.18820500 -0.19276500
C 2.10033800 2.33507700 2.20965100
H -0.92679800 4.73774700 -1.52802700
H -1.07310000 4.77431500 0.22517200
C 0.96025600 4.89997800 -0.47052800
H 0.87208300 2.73704300 -2.26432300
H 0.19972300 1.18283700 -1.75732600
H -0.78896200 2.34682600 -2.67374300
H -2.13856900 1.33785400 -0.44930500
H -2.55188500 2.80800700 -1.35358400
H -2.52008400 2.83465400 0.41473400
H 2.67913700 4.66323400 0.83139700
H 1.13246500 4.72427700 1.66787200
H 2.43544400 1.10703100 -0.25875000
H 2.47925500 2.60689100 -1.19391100
H 3.60978700 2.38630000 0.12912800
H 3.14055400 2.65683600 2.32144700
H 1.52496200 2.76299600 3.03251400
H 2.06437600 1.24571900 2.30112200
H 0.95147300 5.99491300 -0.42251700
H 1.54178600 4.64359500 -1.36514600
B -0.12928500 -0.50515900 0.95749400
H 1.06767500 -0.43460500 0.81546500
C -2.12713800 -3.74162800 -2.98391300
H -1.87249400 -3.83193100 -4.04488800
H -2.01256000 -4.71776900 -2.50952900
H -3.17890900 -3.45296600 -2.91161300
C -1.61691900 -1.29853500 -2.84797500
H -1.01755600 -0.51877700 -2.37349400
H -1.47814700 -1.23806800 -3.93126900
H -2.66623800 -1.09233700 -2.62145200
C 0.59693300 -4.48553200 -2.33015900
H 1.66685300 -4.61893400 -2.14894800
H 0.05181700 -5.00623800 -1.53753600
H 0.35034800 -4.95032100 -3.28890600
C 1.05809800 -2.27547600 -3.41866900
H 0.70753000 -2.58275200 -4.40925100
C -1.26376500 -2.68446200 -2.30915300
C 0.27893700 -2.99030600 -2.32410300
O -1.56450200 -2.68861300 -0.89842900
O 0.71918800 -2.48144700 -1.04656400
B -0.39392800 -2.38025500 -0.24491900
H 0.96263500 -1.19204200 -3.32949600
H 2.11871700 -2.52855800 -3.33936200
H -0.66022800 -0.39431300 -0.13793500
C 2.14806200 -2.63500000 1.74938100
N 0.73991400 -2.83043900 2.05643300
C -0.33997000 -2.25992800 1.33169400
C -1.50164700 -2.72356400 2.01426000
C -1.12789700 -3.49649600 3.09690400
C 0.27348900 -3.52550800 3.08770700
H 2.72664500 -3.40254200 2.26589300
H 2.46932200 -1.64300800 2.07227400
H 2.29020700 -2.71885200 0.67181500
H -2.50779300 -2.50047300 1.68417400
H -1.76489100 -3.98792400 3.81795900
H 0.95097400 -4.01516800 3.77648600
