70
int3 TMP
C -1.94788400 -2.19743100 0.81491100
C -0.62807800 -1.76499500 0.85049700
C -0.28263700 -0.40680700 0.73923300
C -1.32071800 0.52651100 0.55030500
C -2.64930900 0.07864600 0.52856600
C -2.96954800 -1.26508300 0.66406400
H -2.17719000 -3.25548900 0.90813900
H 0.16192900 -2.50145500 0.98341500
H -3.44284200 0.81010600 0.40130500
H -4.00885400 -1.58159300 0.64412700
B 1.23931500 0.05137900 0.88494800
H 1.92219800 -0.86041400 0.27673300
C 1.78917200 0.05263800 2.48197300
C 1.14127500 -0.53158600 3.56352200
C 1.39127100 0.09705200 4.79941100
H 0.51247100 -1.40613900 3.44014600
C 2.22888400 1.17789100 4.65572100
H 0.97783700 -0.22505000 5.74705500
H 2.57621300 1.84309500 5.43627200
B 2.60965500 -1.11432100 1.41410100
O 3.96336800 -0.81062200 1.24856600
O 2.41428100 -2.47296200 1.70393900
C 4.66656800 -2.06448200 1.24528900
C 3.70765000 -2.98373700 2.07408600
C 4.80456600 -2.51512900 -0.21020600
H 5.29039000 -1.71796700 -0.77856200
H 5.40958000 -3.42230800 -0.29915600
H 3.82484200 -2.70432300 -0.65871000
C 6.03827500 -1.84868900 1.86836600
H 6.63607200 -1.19542100 1.22733800
H 5.95669900 -1.37563700 2.84859700
H 6.57075000 -2.79946200 1.97639400
C 3.87308900 -2.80063200 3.58482000
H 3.03104300 -3.28068300 4.09112900
H 4.79884700 -3.25589100 3.94859500
H 3.87520500 -1.74197100 3.86181000
C 3.76113000 -4.46016700 1.71071100
H 4.76415700 -4.86574000 1.87919900
H 3.05965100 -5.02050500 2.33474600
H 3.48784200 -4.62130100 0.66652100
N -1.02593200 1.92151900 0.39430000
S 2.70614800 1.42194700 3.04347000
H 1.65046200 1.03936300 0.35672000
C -1.36921900 2.82966700 1.51362300
C -1.01305200 2.48852700 -0.98809300
C -2.74723600 3.52464300 1.29714800
C -0.25815000 3.88783300 1.68536000
C -1.41536400 2.06274500 2.84238800
C -3.13225300 3.64949300 -0.18330900
H -2.71539700 4.51828200 1.76126500
H -3.52724900 2.96707600 1.82935200
C -1.89772000 3.76159300 -1.06733200
C -1.55330800 1.48144300 -2.01926700
C 0.42153700 2.84144800 -1.42319600
H -2.18590000 3.91492400 -2.11345200
H -1.32208600 4.65039000 -0.78579300
H -3.79280700 4.50993500 -0.33402200
H -3.70978800 2.77043400 -0.49502500
H -1.42612700 1.90517400 -3.02020200
H -2.61501300 1.26291800 -1.87670300
H -1.01021200 0.53384300 -1.98234500
H 0.40789100 3.37084700 -2.38358600
H 1.02203900 1.93608800 -1.54254800
H 0.92136400 3.47765900 -0.69017700
H -0.18925300 4.58165200 0.84620800
H 0.70963900 3.39049300 1.79774000
H -0.44912300 4.48566400 2.58320300
H -2.17896100 1.28236000 2.84942000
H -1.64738700 2.76940100 3.64567300
H -0.45071100 1.59968000 3.06614700
