54
TS1
C -1.31829200 -2.05511900 0.53709000
C -0.02369800 -1.67331700 0.94703300
C 1.00045200 -2.61267400 0.72775200
C 0.77876100 -3.85976200 0.15624200
C -0.51268900 -4.21532400 -0.22702400
C -1.55148500 -3.31252600 -0.03490400
H 2.01150800 -2.34200900 1.02452300
H 1.60395500 -4.55179600 0.01118500
H -0.71379300 -5.18508300 -0.67270500
H -2.55110600 -3.60258800 -0.32850000
H -1.55862400 0.10360000 1.04789500
B 0.37331800 -0.29150300 1.70001600
N -2.41614400 -1.10144500 0.73040300
C -3.26756400 -1.38369200 1.97017700
C -3.16901500 -0.68894800 -0.52807500
C -4.21079800 -0.18875400 2.20823800
C -2.35082400 -1.51207900 3.19200900
C -4.09871800 -2.68215900 1.91922400
C -4.03325900 0.52795200 -0.15124800
C -4.04674600 -1.76940700 -1.20028100
C -2.17452200 -0.23402000 -1.60037900
H -4.87955900 -0.45569400 3.03386600
H -3.61953200 0.66906800 2.54411700
C -5.00624000 0.23142700 0.97954700
H -1.71164500 -2.39697200 3.13542200
H -1.70597300 -0.64583500 3.32391000
H -2.97677200 -1.60523200 4.08497900
H -3.50279000 -3.54266500 1.61022700
H -4.45714200 -2.88907100 2.93236800
H -4.98254600 -2.61520200 1.28474400
H -4.56079900 0.86417200 -1.05039400
H -3.36864000 1.34687000 0.15485500
H -4.72983900 -1.26544700 -1.89217400
H -3.44322700 -2.45550000 -1.79827100
H -4.65398600 -2.35647700 -0.51693600
H -1.69970300 0.70471500 -1.32472400
H -1.40777500 -0.98694800 -1.79933300
H -2.72088500 -0.06310100 -2.53312500
H -5.59903200 1.12265400 1.21111600
H -5.71663800 -0.54888600 0.68072200
H 1.50020800 0.05460900 1.37867300
C -0.65942900 0.98644000 1.32824300
C -1.27429900 1.89121200 2.23032500
C -1.32327400 3.16565200 1.67256500
H -1.67435300 1.60151200 3.19305000
H -1.75398200 4.06175000 2.09667200
H 0.33403900 -0.44757600 2.90717100
C -0.69516600 3.06707200 0.43004200
H -0.49063400 3.83671400 -0.30335100
N -0.31043800 1.80120400 0.22301900
C 0.60422200 1.40296400 -0.83453200
H 0.35955900 1.94043500 -1.75360800
H 1.63319900 1.62581000 -0.53966000
H 0.52414300 0.33126600 -1.00689600