51
TS3
C  -2.05647800  -2.08167000   0.88774500
C  -0.71541700  -1.70909900   0.93465100
C  -0.28416500  -0.42133200   0.59501700
C  -1.26942000   0.52424300   0.22842000
C  -2.61511000   0.14482000   0.17402200
C  -3.00706900  -1.15097000   0.49263400
H  -2.34915900  -3.09576000   1.14202500
H   0.02192400  -2.45471600   1.21885300
H  -3.36878200   0.87022100  -0.11326600
H  -4.05730300  -1.42267800   0.44033700
B   1.26449900  -0.02546100   0.55323800
H   1.77671400  -1.14040800  -0.06933200
C   1.99846100   0.25456400   1.96532400
C   1.62154400  -0.15575600   3.22695000
C   2.29477100   0.51050600   4.28186900
H   0.87672200  -0.92962200   3.37196900
C   3.18117500   1.44485800   3.81583600
H   2.12659900   0.31592000   5.33381600
H   3.81494600   2.09867900   4.39929800
H   1.62131100   0.73752700  -0.30016300
B   2.59843600  -1.50111200   0.82101700
O   3.91458800  -1.36672900   0.48573300
O   2.30658900  -2.62545900   1.54984300
C   4.63313800  -2.30158900   1.32578900
C   3.53597100  -3.38385200   1.63830500
C   5.83074700  -2.82008000   0.54378100
H   6.53510700  -2.00356700   0.36766400
H   6.34785200  -3.60056500   1.11085300
H   5.53379600  -3.22754400  -0.42357200
C   5.10362000  -1.54318600   2.56675900
H   5.69862800  -0.68425300   2.24864800
H   4.26367600  -1.17124400   3.15862600
H   5.72435900  -2.18025300   3.20292000
C   3.62859600  -3.99703200   3.02758200
H   2.83537300  -4.73762700   3.15694000
H   4.59101500  -4.50097500   3.16018600
H   3.51801500  -3.23895800   3.80436100
C   3.44580100  -4.47859400   0.57559700
H   4.30831000  -5.14956000   0.61421600
H   2.54118900  -5.06516300   0.75235900
H   3.38026500  -4.04842400  -0.42732600
N  -0.86959100   1.84904700  -0.09622200
C  -1.72890400   2.59113700  -0.99317300
H  -2.65414400   2.96578200  -0.51790000
H  -1.18024500   3.46196100  -1.36638100
H  -2.00523900   1.96924900  -1.84792500
C  -0.45923500   2.66057700   1.03950500
H   0.13245900   3.51327900   0.69010500
H  -1.32568600   3.04760200   1.60515900
H   0.15635300   2.07849500   1.72498600
S   3.19524800   1.51043600   2.10425400