70
ts3 TMP
C -2.11015400 -1.94554300 1.18106300
C -0.76729500 -1.59142400 1.09871800
C -0.35436200 -0.30522600 0.72030500
C -1.35380900 0.64491900 0.41270700
C -2.70275200 0.27654400 0.49679800
C -3.08560000 -1.00443200 0.87929800
H -2.38958100 -2.95351800 1.47555600
H -0.01737700 -2.34426800 1.33023700
H -3.46487200 1.01077200 0.25814500
H -4.13979100 -1.26152300 0.93677400
B 1.20156300 0.08036600 0.66019900
H 1.67696200 -1.00450700 -0.05268600
C 1.97667200 0.24890600 2.06849400
C 1.64871400 -0.23901900 3.31570200
C 2.34991700 0.38068300 4.38297300
H 0.91452800 -1.02599900 3.44903900
C 3.20705700 1.35175400 3.93715600
H 2.21939200 0.12845100 5.42874000
H 3.85229000 1.98390700 4.53313300
H 1.58328100 0.88960800 -0.13732000
B 2.53230800 -1.42833600 0.77757800
O 3.83852100 -1.27253300 0.41156400
O 2.26163800 -2.59912000 1.43999100
C 4.58270600 -2.25903200 1.16743200
C 3.49429700 -3.35895900 1.45037700
C 5.75085500 -2.72582400 0.31148300
H 6.44545500 -1.89648200 0.15655100
H 6.29265000 -3.53638100 0.80941700
H 5.41708700 -3.07479500 -0.66694100
C 5.09720600 -1.57793300 2.43492900
H 5.68722000 -0.70365600 2.14962500
H 4.27823400 -1.23663400 3.07386400
H 5.73447200 -2.25094000 3.01568100
C 3.62175900 -4.04500700 2.80252000
H 2.82437200 -4.78392400 2.91688300
H 4.58152000 -4.56508300 2.88409000
H 3.53781100 -3.32728700 3.62030200
C 3.37383600 -4.39376300 0.33267100
H 4.23798700 -5.06372300 0.30884700
H 2.47580000 -4.99276100 0.50280700
H 3.27840500 -3.91085900 -0.64385000
N -0.97651000 1.97056600 0.01572900
C -1.05848000 2.27844000 -1.43532500
C -1.14430900 3.04974900 1.02151400
S 3.16072100 1.50728300 2.23573400
C -0.18527600 4.19553400 0.64840400
C -0.72336400 2.53256500 2.40408200
C -2.58267000 3.59752700 1.17712300
C -0.32302700 4.64466500 -0.80129600
H 0.84045600 3.84001300 0.81287400
H -0.35138900 5.03524100 1.33424500
C -0.10519000 3.45278700 -1.72592500
H 0.40948800 5.42925100 -1.02232000
H -1.31034200 5.09228200 -0.97341000
H 0.92281000 3.09030100 -1.59691400
H -0.21619100 3.74886000 -2.77623100
C -2.47428000 2.60848200 -1.96419100
C -0.56536300 1.07030100 -2.24781800
H -0.51860000 1.34684500 -3.30594200
H -1.23844700 0.21381300 -2.15395900
H 0.43235700 0.76118000 -1.93107300
H -2.44313400 2.70677000 -3.05474500
H -2.87833700 3.54120500 -1.56811700
H -3.17790500 1.80514500 -1.73021500
H 0.29287600 2.13703000 2.38495500
H -1.38945500 1.74513000 2.76758000
H -0.75457200 3.35899800 3.12120000
H -2.95202900 4.10545600 0.28537000
H -2.61127600 4.32136600 1.99867600
H -3.28327100 2.79643800 1.42748300
