82
dimer Fontaine
B  0.82275300   0.21875800   0.27000100
H -0.16564500   0.91788000  -0.27791500
H  0.92561800   0.58968300   1.39800100
C  2.05934200   0.13360000  -0.70547600
C  2.07891700  -0.78745000  -1.76190400
H  1.23217700  -1.45526100  -1.89739900
C  3.15040000  -0.87675200  -2.64200100
H  3.13732400  -1.60459300  -3.44713300
C  4.23513700  -0.02341900  -2.48130800
H  5.07865300  -0.07260400  -3.16323000
C  4.24090700   0.89801800  -1.43972300
H  5.08847700   1.56275000  -1.32234000
C  3.17198500   0.98648700  -0.53992900
N  3.18619800   1.92001800   0.54693700
C  4.08542600   1.58349400   1.68225100
C  3.62552800   2.38162000   2.91564500
H  2.65200000   1.98682600   3.23267400
H  4.33125600   2.20092500   3.73410600
C  3.48004800   3.87196400   2.64070700
H  3.13499800   4.39025000   3.54156500
H  4.44898700   4.31557100   2.38164500
C  2.47839700   4.06655300   1.51140100
H  2.34322700   5.12988800   1.28375300
H  1.50593500   3.68001800   1.84245700
C  2.86576800   3.33061900   0.21510700
C  3.99416600   4.09866000  -0.51030300
H  4.26204300   3.60276400  -1.44657400
H  4.89627300   4.19661500   0.09507900
H  3.65463900   5.10934000  -0.75996800
C  1.63622200   3.36978100  -0.70519200
H  1.82226400   2.88262500  -1.66550400
H  1.36423600   4.41131500  -0.90112600
H  0.78008400   2.88636700  -0.22723000
C  5.59118800   1.83567700   1.43605900
H  5.82368100   2.88344200   1.24122900
H  5.95697100   1.24141500   0.59577400
H  6.16127600   1.53232800   2.32050100
C  3.93353800   0.09145600   2.01871500
H  4.31229000  -0.54805000   1.21743700
H  2.88740500  -0.16463300   2.19885900
H  4.50402300  -0.13192800   2.92554200
B -0.82275200  -0.21875900  -0.27000000
H  0.16564500  -0.91788100   0.27791600
H -0.92561800  -0.58968400  -1.39800100
C -2.05934200  -0.13360000   0.70547700
C -2.07891700   0.78745000   1.76190500
H -1.23217700   1.45526000   1.89740000
C -3.15040000   0.87675100   2.64200200
H -3.13732400   1.60459200   3.44713400
C -4.23513700   0.02341900   2.48130800
H -5.07865300   0.07260300   3.16323000
C -4.24090700  -0.89801800   1.43972300
H -5.08847700  -1.56275000   1.32234000
C -3.17198400  -0.98648700   0.53992900
N -3.18619800  -1.92001800  -0.54693700
C -4.08542600  -1.58349400  -1.68225100
C -3.62552700  -2.38161900  -2.91564600
H -2.65200000  -1.98682600  -3.23267400
H -4.33125600  -2.20092500  -3.73410700
C -3.48004800  -3.87196300  -2.64070800
H -3.13499800  -4.39025000  -3.54156600
H -4.44898700  -4.31557000  -2.38164600
C -2.47839700  -4.06655400  -1.51140100
H -2.34322700  -5.12988900  -1.28375300
H -1.50593500  -3.68001800  -1.84245700
C -2.86576900  -3.33061900  -0.21510700
C -3.99416600  -4.09866000   0.51030200
H -4.26204400  -3.60276400   1.44657300
H -4.89627300  -4.19661500  -0.09507900
H -3.65464000  -5.10934000   0.75996700
C -1.63622200  -3.36978200   0.70519200
H -1.82226500  -2.88262600   1.66550400
H -1.36423700  -4.41131600   0.90112600
H -0.78008400  -2.88636800   0.22723100
C -5.59118700  -1.83567700  -1.43605900
H -5.82368100  -2.88344100  -1.24123000
H -5.95697100  -1.24141400  -0.59577500
H -6.16127500  -1.53232700  -2.32050200
C -3.93353700  -0.09145600  -2.01871500
H -4.31228900   0.54805100  -1.21743700
H -2.88740400   0.16463300  -2.19885800
H -4.50402100   0.13192900  -2.92554200