74
Coordinates from ORCA-job input
  C          -2.28269117000000     -1.36100978000000      0.88054022000000
  C          -1.18939848000000     -0.55924574000000      1.27306211000000
  C           0.07300839000000     -1.17034783000000      1.34289008000000
  C           0.25581655000000     -2.52391022000000      1.08552156000000
  C          -0.83280599000000     -3.30814403000000      0.71945033000000
  C          -2.08696621000000     -2.72126454000000      0.60950777000000
  H           0.93752042000000     -0.56808488000000      1.61115172000000
  H           1.24758421000000     -2.96278548000000      1.15724739000000
  H          -0.70646376000000     -4.36568047000000      0.50317494000000
  H          -2.93397062000000     -3.32014200000000      0.29272664000000
  N          -3.57267595000000     -0.76037853000000      0.70702336000000
  C          -4.61375060000000     -1.05352511000000      1.72009988000000
  C          -3.93185249000000     -0.36797394000000     -0.67631312000000
  C          -5.63354788000000      0.10127248000000      1.70254990000000
  C          -3.96870836000000     -1.06947651000000      3.11325893000000
  C          -5.35409477000000     -2.40034321000000      1.54171680000000
  C          -4.99878171000000      0.74049145000000     -0.61084978000000
  C          -4.42628636000000     -1.53648489000000     -1.56036432000000
  C          -2.70419840000000      0.23237563000000     -1.38105090000000
  H          -6.45250304000000     -0.13604273000000      2.39266495000000
  H          -5.13215562000000      0.99836539000000      2.08940315000000
  C          -6.16623544000000      0.40239844000000      0.30723167000000
  H          -3.26543180000000     -1.89832405000000      3.23290434000000
  C           2.85165346000000      4.87171898000000      1.66541348000000
  H           2.23693886000000      5.73297702000000      1.39094450000000
  H           3.13498222000000      4.98046129000000      2.71386098000000
  H           3.76150430000000      4.89951863000000      1.05612386000000
  C           1.53678053000000      3.56421088000000     -0.01808889000000
  H           0.84175080000000      4.39805286000000     -0.14677208000000
  H           2.33940579000000      3.66987107000000     -0.75380706000000
  H           0.98943590000000      2.64146264000000     -0.22801427000000
  C           3.54416056000000      1.57579630000000      0.60864904000000
  H           4.28677402000000      2.23088464000000      0.14057072000000
  H           4.06281404000000      0.67907551000000      0.95792154000000
  H           2.82273186000000      1.26919503000000     -0.15075622000000
  C           3.86546322000000      2.46166146000000      2.92928063000000
  H           4.19693685000000      1.47790138000000      3.27094229000000
  H          -3.42635068000000     -0.14153593000000      3.30038429000000
  H          -4.74750770000000     -1.17693508000000      3.87645749000000
  H          -5.93505373000000     -2.44604484000000      0.61890838000000
  H          -4.65539006000000     -3.24076168000000      1.54403590000000
  H          -6.05143310000000     -2.55595684000000      2.37289470000000
  H          -5.34832286000000      0.95508732000000     -1.62813133000000
  H          -4.51329178000000      1.65122149000000     -0.23640441000000
  H          -4.57473538000000     -1.19655843000000     -2.59144098000000
  H          -3.68470793000000     -2.33988924000000     -1.58311915000000
  H          -5.37244048000000     -1.95808025000000     -1.21609122000000
  H          -2.27113123000000      1.04815195000000     -0.79598751000000
  H          -1.92414338000000     -0.51320873000000     -1.55641563000000
  H          -3.01013150000000      0.63707836000000     -2.35124054000000
  H          -6.87020427000000      1.24167481000000      0.34328188000000
  H          -6.73028751000000     -0.45382451000000     -0.08352102000000
  B          -1.40654005000000      0.99373827000000      1.52208463000000
  H          -2.48930151000000      1.38721039000000      1.85251676000000
  H          -0.77384241000000      1.76022201000000      0.83203223000000
  C           2.08198061000000      3.58102207000000      1.41156188000000
  C           2.86492511000000      2.27130491000000      1.78548848000000
  O           0.94069760000000      3.52840971000000      2.30313732000000
  O           1.81427296000000      1.41465080000000      2.28370311000000
  B           0.75139358000000      2.20881041000000      2.64252712000000
  H           4.74685294000000      3.02633933000000      2.61002919000000
  H           3.41486759000000      2.97729991000000      3.78236882000000
  C          -0.47723637000000      1.64181074000000      3.41301291000000
  C          -0.50359886000000      0.45230190000000      4.16826392000000
  C          -1.52568509000000      0.53396988000000      5.11308685000000
  H           0.16410282000000     -0.38213528000000      4.00684904000000
  C          -2.11922239000000      1.77891594000000      4.93795640000000
  H          -1.83099168000000     -0.21595001000000      5.82969524000000
  H          -2.97129073000000      2.20694798000000      5.45075702000000
  N          -1.48894523000000      2.44619582000000      3.95638151000000
  C          -1.89133810000000      3.73213183000000      3.41744873000000
  H          -1.03003393000000      4.39824084000000      3.37103203000000
  H          -2.28941821000000      3.59838506000000      2.40729717000000
  H          -2.66278499000000      4.16215347000000      4.05783168000000
