 xtb: 6.7.1 (edcfbbe)
          07292512343D

 70 73  0     0  0            999 V2000
   -1.9866   -1.9840    1.1096 C   0  0  0  0  0  0  0  0  0  0  0  0
   -0.6714   -1.5701    1.0090 C   0  0  0  0  0  0  0  0  0  0  0  0
   -0.3190   -0.2668    0.6558 C   0  0  0  0  0  0  0  0  0  0  0  0
   -1.3638    0.6337    0.3846 C   0  0  0  0  0  0  0  0  0  0  0  0
   -2.6873    0.2104    0.4907 C   0  0  0  0  0  0  0  0  0  0  0  0
   -3.0048   -1.0849    0.8533 C   0  0  0  0  0  0  0  0  0  0  0  0
   -2.2161   -3.0039    1.3853 H   0  0  0  0  0  0  0  0  0  0  0  0
    0.1148   -2.2858    1.1990 H   0  0  0  0  0  0  0  0  0  0  0  0
   -3.4877    0.9048    0.2854 H   0  0  0  0  0  0  0  0  0  0  0  0
   -4.0395   -1.3893    0.9299 H   0  0  0  0  0  0  0  0  0  0  0  0
    1.2307    0.1368    0.5869 B   0  0  0  0  0  0  0  0  0  0  0  0
    1.7529   -0.8602   -0.2051 H   0  0  0  0  0  0  0  0  0  0  0  0
    1.9530    0.1856    2.0314 C   0  0  0  0  0  0  0  0  0  0  0  0
    1.6237   -0.4119    3.2222 C   0  0  0  0  0  0  0  0  0  0  0  0
    2.3561    0.0538    4.3321 C   0  0  0  0  0  0  0  0  0  0  0  0
    0.8691   -1.1751    3.2907 H   0  0  0  0  0  0  0  0  0  0  0  0
    3.2413    1.0309    3.9951 C   0  0  0  0  0  0  0  0  0  0  0  0
    2.2271   -0.3160    5.3347 H   0  0  0  0  0  0  0  0  0  0  0  0
    3.9183    1.5632    4.6339 H   0  0  0  0  0  0  0  0  0  0  0  0
    1.5383    1.0763   -0.0552 H   0  0  0  0  0  0  0  0  0  0  0  0
    2.5871   -1.3428    0.6121 B   0  0  0  0  0  0  0  0  0  0  0  0
    3.9190   -1.1158    0.4311 O   0  0  0  0  0  0  0  0  0  0  0  0
    2.3337   -2.5601    1.1753 O   0  0  0  0  0  0  0  0  0  0  0  0
    4.6671   -2.1384    1.1009 C   0  0  0  0  0  0  0  0  0  0  0  0
    3.5703   -3.2043    1.5010 C   0  0  0  0  0  0  0  0  0  0  0  0
    5.7319   -2.6515    0.1298 C   0  0  0  0  0  0  0  0  0  0  0  0
    6.4119   -1.8352   -0.0998 H   0  0  0  0  0  0  0  0  0  0  0  0
    6.2964   -3.4640    0.5774 H   0  0  0  0  0  0  0  0  0  0  0  0
    5.2869   -2.9873   -0.8014 H   0  0  0  0  0  0  0  0  0  0  0  0
    5.3752   -1.4969    2.2982 C   0  0  0  0  0  0  0  0  0  0  0  0
    5.9934   -0.6804    1.9326 H   0  0  0  0  0  0  0  0  0  0  0  0
    4.6638   -1.0845    3.0063 H   0  0  0  0  0  0  0  0  0  0  0  0
    6.0084   -2.2206    2.8026 H   0  0  0  0  0  0  0  0  0  0  0  0
    3.5448   -3.5674    2.9866 C   0  0  0  0  0  0  0  0  0  0  0  0
    2.7458   -4.2855    3.1542 H   0  0  0  0  0  0  0  0  0  0  0  0
    4.4874   -4.0143    3.2877 H   0  0  0  0  0  0  0  0  0  0  0  0
    3.3423   -2.6943    3.5990 H   0  0  0  0  0  0  0  0  0  0  0  0
    3.6264   -4.4956    0.6777 C   0  0  0  0  0  0  0  0  0  0  0  0
    4.5397   -5.0466    0.8788 H   0  0  0  0  0  0  0  0  0  0  0  0
    2.7746   -5.1142    0.9500 H   0  0  0  0  0  0  0  0  0  0  0  0
    3.5548   -4.2798   -0.3844 H   0  0  0  0  0  0  0  0  0  0  0  0
   -1.0583    1.9692   -0.0069 N   0  0  0  0  0  0  0  0  0  0  0  0
   -1.2020    2.2866   -1.4246 C   0  0  0  0  0  0  0  0  0  0  0  0
   -1.1895    3.0039    1.0139 C   0  0  0  0  0  0  0  0  0  0  0  0
    3.1883    1.3872    2.3165 S   0  0  0  0  0  0  0  0  0  0  0  0
   -0.2945    4.1928    0.6251 C   0  0  0  0  0  0  0  0  0  0  0  0
   -0.6642    2.4516    2.3465 C   0  0  0  0  0  0  0  0  0  0  0  0
   -2.6275    3.4969    1.2875 C   0  0  0  0  0  0  0  0  0  0  0  0
   -0.5385    4.6619   -0.8012 C   0  0  0  0  0  0  0  0  0  0  0  0
    0.7463    3.8751    0.7123 H   0  0  0  0  0  0  0  0  0  0  0  0
   -0.4608    5.0109    1.3282 H   0  0  0  0  0  0  0  0  0  0  0  0
   -0.3037    3.4937   -1.7467 C   0  0  0  0  0  0  0  0  0  0  0  0
    0.1473    5.4773   -1.0442 H   0  0  0  0  0  0  0  0  0  0  0  0
   -1.5530    5.0468   -0.9112 H   0  0  0  0  0  0  0  0  0  0  0  0
    0.7371    3.1786   -1.6519 H   0  0  0  0  0  0  0  0  0  0  0  0
   -0.4733    3.8013   -2.7803 H   0  0  0  0  0  0  0  0  0  0  0  0
   -2.6415    2.5645   -1.9114 C   0  0  0  0  0  0  0  0  0  0  0  0
   -0.6941    1.0979   -2.2570 C   0  0  0  0  0  0  0  0  0  0  0  0
   -0.6867    1.3714   -3.3098 H   0  0  0  0  0  0  0  0  0  0  0  0
   -1.3377    0.2313   -2.1300 H   0  0  0  0  0  0  0  0  0  0  0  0
    0.3131    0.8254   -1.9621 H   0  0  0  0  0  0  0  0  0  0  0  0
   -2.6296    2.7182   -2.9887 H   0  0  0  0  0  0  0  0  0  0  0  0
   -3.0723    3.4480   -1.4549 H   0  0  0  0  0  0  0  0  0  0  0  0
   -3.2846    1.7146   -1.7029 H   0  0  0  0  0  0  0  0  0  0  0  0
    0.3379    2.0598    2.2215 H   0  0  0  0  0  0  0  0  0  0  0  0
   -1.3015    1.6534    2.7181 H   0  0  0  0  0  0  0  0  0  0  0  0
   -0.6390    3.2479    3.0870 H   0  0  0  0  0  0  0  0  0  0  0  0
   -3.0543    4.0291    0.4449 H   0  0  0  0  0  0  0  0  0  0  0  0
   -2.6147    4.1763    2.1375 H   0  0  0  0  0  0  0  0  0  0  0  0
   -3.2742    2.6612    1.5379 H   0  0  0  0  0  0  0  0  0  0  0  0
  1  2  4  0  0  0  0
  2  3  4  0  0  0  0
  3  4  4  0  0  0  0
  4  5  4  0  0  0  0
  1  6  4  0  0  0  0
  5  6  4  0  0  0  0
  1  7  1  0  0  0  0
  2  8  1  0  0  0  0
  5  9  1  0  0  0  0
  6 10  1  0  0  0  0
  3 11  1  0  0  0  0
 11 12  1  0  0  0  0
 11 13  1  0  0  0  0
 13 14  2  0  0  0  0
 14 15  4  0  0  0  0
 14 16  1  0  0  0  0
 15 17  2  0  0  0  0
 15 18  1  0  0  0  0
 17 19  1  0  0  0  0
 11 20  1  0  0  0  0
 12 21  1  0  0  0  0
 21 22  1  0  0  0  0
 21 23  1  0  0  0  0
 22 24  1  0  0  0  0
 23 25  1  0  0  0  0
 24 25  1  0  0  0  0
 24 26  1  0  0  0  0
 26 27  1  0  0  0  0
 26 28  1  0  0  0  0
 26 29  1  0  0  0  0
 24 30  1  0  0  0  0
 30 31  1  0  0  0  0
 30 32  1  0  0  0  0
 30 33  1  0  0  0  0
 25 34  1  0  0  0  0
 34 35  1  0  0  0  0
 34 36  1  0  0  0  0
 34 37  1  0  0  0  0
 25 38  1  0  0  0  0
 38 39  1  0  0  0  0
 38 40  1  0  0  0  0
 38 41  1  0  0  0  0
  4 42  1  0  0  0  0
 42 43  1  0  0  0  0
 42 44  1  0  0  0  0
 13 45  1  0  0  0  0
 17 45  1  0  0  0  0
 44 46  1  0  0  0  0
 44 47  1  0  0  0  0
 44 48  1  0  0  0  0
 46 49  1  0  0  0  0
 46 50  1  0  0  0  0
 46 51  1  0  0  0  0
 43 52  1  0  0  0  0
 49 52  1  0  0  0  0
 49 53  1  0  0  0  0
 49 54  1  0  0  0  0
 52 55  1  0  0  0  0
 52 56  1  0  0  0  0
 43 57  1  0  0  0  0
 43 58  1  0  0  0  0
 58 59  1  0  0  0  0
 58 60  1  0  0  0  0
 58 61  1  0  0  0  0
 57 62  1  0  0  0  0
 57 63  1  0  0  0  0
 57 64  1  0  0  0  0
 47 65  1  0  0  0  0
 47 66  1  0  0  0  0
 47 67  1  0  0  0  0
 48 68  1  0  0  0  0
 48 69  1  0  0  0  0
 48 70  1  0  0  0  0
M  END
